<?xml version="1.0" encoding="UTF-8"?>

<!-- generated on 2024-02-29 10:49:15 by Eclipse SUMO netedit Version 1.13.0
<configuration xmlns:xsi="http://www.w3.org/2001/XMLSchema-instance" xsi:noNamespaceSchemaLocation="http://sumo.dlr.de/xsd/netconvertConfiguration.xsd">

    <input>
        <sumo-net-file value="C:\Users\Chen%20Deng\Desktop\CodeManage\UncontrolledIntersectionCollaboration\simpleMapUncontrolledIntersection.net.xml"/>
    </input>

    <output>
        <output-file value="C:\Users\Chen%20Deng\Desktop\CodeManage\UncontrolledIntersectionCollaboration\simpleMapUncontrolledIntersection.net.xml"/>
    </output>

    <processing>
        <geometry.min-radius.fix.railways value="false"/>
        <geometry.max-grade.fix value="false"/>
        <offset.disable-normalization value="true"/>
        <lefthand value="false"/>
    </processing>

    <junctions>
        <no-turnarounds value="true"/>
        <junctions.corner-detail value="5"/>
        <junctions.limit-turn-speed value="5.5"/>
        <rectangular-lane-cut value="false"/>
    </junctions>

    <pedestrian>
        <walkingareas value="false"/>
    </pedestrian>

    <report>
        <aggregate-warnings value="5"/>
    </report>

</configuration>
-->

<net version="1.9" junctionCornerDetail="5" limitTurnSpeed="5.50" xmlns:xsi="http://www.w3.org/2001/XMLSchema-instance" xsi:noNamespaceSchemaLocation="http://sumo.dlr.de/xsd/net_file.xsd">

    <location netOffset="0.00,0.00" convBoundary="-200.00,-200.00,200.00,200.00" origBoundary="-10000000000.00,-10000000000.00,10000000000.00,10000000000.00" projParameter="!"/>

    <edge id=":J1_0" function="internal">
        <lane id=":J1_0_0" index="0" speed="6.69" length="9.43" width="3.70" shape="-1.85,7.70 -2.22,5.14 -3.31,3.31 -5.14,2.22 -7.70,1.85"/>
    </edge>
    <edge id=":J1_1" function="internal">
        <lane id=":J1_1_0" index="0" speed="13.89" length="15.40" width="3.70" shape="-1.85,7.70 -1.85,-7.70"/>
    </edge>
    <edge id=":J1_2" function="internal">
        <lane id=":J1_2_0" index="0" speed="8.15" length="4.79" width="3.70" shape="-1.85,7.70 -0.99,4.31 -0.23,3.26"/>
    </edge>
    <edge id=":J1_12" function="internal">
        <lane id=":J1_12_0" index="0" speed="8.15" length="9.79" width="3.70" shape="-0.23,3.26 1.24,1.24 4.31,-0.99 7.70,-1.85"/>
    </edge>
    <edge id=":J1_3" function="internal">
        <lane id=":J1_3_0" index="0" speed="6.69" length="9.43" width="3.70" shape="7.70,1.85 5.14,2.22 3.31,3.31 2.22,5.14 1.85,7.70"/>
    </edge>
    <edge id=":J1_4" function="internal">
        <lane id=":J1_4_0" index="0" speed="13.89" length="15.40" width="3.70" shape="7.70,1.85 -7.70,1.85"/>
    </edge>
    <edge id=":J1_5" function="internal">
        <lane id=":J1_5_0" index="0" speed="8.15" length="14.59" width="3.70" shape="7.70,1.85 4.31,0.99 1.24,-1.24 -0.99,-4.31 -1.85,-7.70"/>
    </edge>
    <edge id=":J1_6" function="internal">
        <lane id=":J1_6_0" index="0" speed="6.69" length="9.43" width="3.70" shape="1.85,-7.70 2.22,-5.14 3.31,-3.31 5.14,-2.22 7.70,-1.85"/>
    </edge>
    <edge id=":J1_7" function="internal">
        <lane id=":J1_7_0" index="0" speed="13.89" length="15.40" width="3.70" shape="1.85,-7.70 1.85,7.70"/>
    </edge>
    <edge id=":J1_8" function="internal">
        <lane id=":J1_8_0" index="0" speed="8.15" length="4.79" width="3.70" shape="1.85,-7.70 0.99,-4.31 0.23,-3.26"/>
    </edge>
    <edge id=":J1_13" function="internal">
        <lane id=":J1_13_0" index="0" speed="8.15" length="9.79" width="3.70" shape="0.23,-3.26 -1.24,-1.24 -4.31,0.99 -7.70,1.85"/>
    </edge>
    <edge id=":J1_9" function="internal">
        <lane id=":J1_9_0" index="0" speed="6.69" length="9.43" width="3.70" shape="-7.70,-1.85 -5.14,-2.22 -3.31,-3.31 -2.22,-5.14 -1.85,-7.70"/>
    </edge>
    <edge id=":J1_10" function="internal">
        <lane id=":J1_10_0" index="0" speed="13.89" length="15.40" width="3.70" shape="-7.70,-1.85 7.70,-1.85"/>
    </edge>
    <edge id=":J1_11" function="internal">
        <lane id=":J1_11_0" index="0" speed="8.15" length="14.59" width="3.70" shape="-7.70,-1.85 -4.31,-0.99 -1.24,1.24 0.99,4.31 1.85,7.70"/>
    </edge>

    <edge id="A" from="J3" to="J1" priority="-1">
        <lane id="A_0" index="0" speed="13.89" length="192.30" width="3.70" shape="1.85,-200.00 1.85,-7.70"/>
    </edge>
    <edge id="B" from="J4" to="J1" priority="-1">
        <lane id="B_0" index="0" speed="13.89" length="192.30" width="3.70" shape="200.00,1.85 7.70,1.85"/>
    </edge>
    <edge id="C" from="J2" to="J1" priority="-1">
        <lane id="C_0" index="0" speed="13.89" length="192.30" width="3.70" shape="-1.85,200.00 -1.85,7.70"/>
    </edge>
    <edge id="D" from="J0" to="J1" priority="-1">
        <lane id="D_0" index="0" speed="13.89" length="192.30" width="3.70" shape="-200.00,-1.85 -7.70,-1.85"/>
    </edge>
    <edge id="a" from="J1" to="J3" priority="-1">
        <lane id="a_0" index="0" speed="13.89" length="192.30" width="3.70" shape="-1.85,-7.70 -1.85,-200.00"/>
    </edge>
    <edge id="b" from="J1" to="J4" priority="-1">
        <lane id="b_0" index="0" speed="13.89" length="192.30" width="3.70" shape="7.70,-1.85 200.00,-1.85"/>
    </edge>
    <edge id="c" from="J1" to="J2" priority="-1">
        <lane id="c_0" index="0" speed="13.89" length="192.30" width="3.70" shape="1.85,7.70 1.85,200.00"/>
    </edge>
    <edge id="d" from="J1" to="J0" priority="-1">
        <lane id="d_0" index="0" speed="13.89" length="192.30" width="3.70" shape="-7.70,1.85 -200.00,1.85"/>
    </edge>

    <junction id="J0" type="dead_end" x="-200.00" y="0.00" incLanes="d_0" intLanes="" shape="-200.00,0.00 -200.00,3.70 -200.00,0.00"/>
    <junction id="J1" type="priority" x="0.00" y="0.00" incLanes="C_0 B_0 A_0 D_0" intLanes=":J1_0_0 :J1_1_0 :J1_12_0 :J1_3_0 :J1_4_0 :J1_5_0 :J1_6_0 :J1_7_0 :J1_13_0 :J1_9_0 :J1_10_0 :J1_11_0" shape="-3.70,7.70 3.70,7.70 4.14,5.48 4.70,4.70 5.48,4.14 6.48,3.81 7.70,3.70 7.70,-3.70 5.48,-4.14 4.70,-4.70 4.14,-5.48 3.81,-6.48 3.70,-7.70 -3.70,-7.70 -4.14,-5.48 -4.70,-4.70 -5.48,-4.14 -6.48,-3.81 -7.70,-3.70 -7.70,3.70 -5.48,4.14 -4.70,4.70 -4.14,5.48 -3.81,6.48">
        <request index="0"  response="000000000000" foes="000100010000" cont="0"/>
        <request index="1"  response="000000000000" foes="111100110000" cont="0"/>
        <request index="2"  response="000011000000" foes="110011110000" cont="1"/>
        <request index="3"  response="000010000000" foes="100010000000" cont="0"/>
        <request index="4"  response="000110000111" foes="100110000111" cont="0"/>
        <request index="5"  response="011110000110" foes="011110000110" cont="0"/>
        <request index="6"  response="000000000000" foes="010000000100" cont="0"/>
        <request index="7"  response="000000000000" foes="110000111100" cont="0"/>
        <request index="8"  response="000000000011" foes="110000110011" cont="1"/>
        <request index="9"  response="000000000010" foes="000000100010" cont="0"/>
        <request index="10" response="000111000110" foes="000111100110" cont="0"/>
        <request index="11" response="000110011110" foes="000110011110" cont="0"/>
    </junction>
    <junction id="J2" type="dead_end" x="0.00" y="200.00" incLanes="c_0" intLanes="" shape="0.00,200.00 3.70,200.00 0.00,200.00"/>
    <junction id="J3" type="dead_end" x="0.00" y="-200.00" incLanes="a_0" intLanes="" shape="0.00,-200.00 -3.70,-200.00 0.00,-200.00"/>
    <junction id="J4" type="dead_end" x="200.00" y="0.00" incLanes="b_0" intLanes="" shape="200.00,0.00 200.00,-3.70 200.00,0.00"/>

    <junction id=":J1_12_0" type="internal" x="-0.23" y="3.26" incLanes=":J1_2_0 A_0" intLanes=":J1_4_0 :J1_5_0 :J1_6_0 :J1_7_0 :J1_10_0 :J1_11_0"/>
    <junction id=":J1_13_0" type="internal" x="0.23" y="-3.26" incLanes=":J1_8_0 C_0" intLanes=":J1_0_0 :J1_1_0 :J1_4_0 :J1_5_0 :J1_10_0 :J1_11_0"/>

    <connection from="A" to="b" fromLane="0" toLane="0" via=":J1_6_0" dir="r" state="M"/>
    <connection from="A" to="c" fromLane="0" toLane="0" via=":J1_7_0" dir="s" state="M"/>
    <connection from="A" to="d" fromLane="0" toLane="0" via=":J1_8_0" dir="l" state="m"/>
    <connection from="B" to="c" fromLane="0" toLane="0" via=":J1_3_0" dir="r" state="m"/>
    <connection from="B" to="d" fromLane="0" toLane="0" via=":J1_4_0" dir="s" state="m"/>
    <connection from="B" to="a" fromLane="0" toLane="0" via=":J1_5_0" dir="l" state="m"/>
    <connection from="C" to="d" fromLane="0" toLane="0" via=":J1_0_0" dir="r" state="M"/>
    <connection from="C" to="a" fromLane="0" toLane="0" via=":J1_1_0" dir="s" state="M"/>
    <connection from="C" to="b" fromLane="0" toLane="0" via=":J1_2_0" dir="l" state="m"/>
    <connection from="D" to="a" fromLane="0" toLane="0" via=":J1_9_0" dir="r" state="m"/>
    <connection from="D" to="b" fromLane="0" toLane="0" via=":J1_10_0" dir="s" state="m"/>
    <connection from="D" to="c" fromLane="0" toLane="0" via=":J1_11_0" dir="l" state="m"/>

    <connection from=":J1_0" to="d" fromLane="0" toLane="0" dir="r" state="M"/>
    <connection from=":J1_1" to="a" fromLane="0" toLane="0" dir="s" state="M"/>
    <connection from=":J1_2" to="b" fromLane="0" toLane="0" via=":J1_12_0" dir="l" state="m"/>
    <connection from=":J1_12" to="b" fromLane="0" toLane="0" dir="l" state="M"/>
    <connection from=":J1_3" to="c" fromLane="0" toLane="0" dir="r" state="M"/>
    <connection from=":J1_4" to="d" fromLane="0" toLane="0" dir="s" state="M"/>
    <connection from=":J1_5" to="a" fromLane="0" toLane="0" dir="l" state="M"/>
    <connection from=":J1_6" to="b" fromLane="0" toLane="0" dir="r" state="M"/>
    <connection from=":J1_7" to="c" fromLane="0" toLane="0" dir="s" state="M"/>
    <connection from=":J1_8" to="d" fromLane="0" toLane="0" via=":J1_13_0" dir="l" state="m"/>
    <connection from=":J1_13" to="d" fromLane="0" toLane="0" dir="l" state="M"/>
    <connection from=":J1_9" to="a" fromLane="0" toLane="0" dir="r" state="M"/>
    <connection from=":J1_10" to="b" fromLane="0" toLane="0" dir="s" state="M"/>
    <connection from=":J1_11" to="c" fromLane="0" toLane="0" dir="l" state="M"/>

</net>
