<configuration>
   <input>
       <net-file value="mapUncontrolledIntersection.net.xml"/>
       <route-files value="UncontrolledIntersection.rou.xml"/>
        <gui-settings-file value="gui-settings.cfg"/>
	<!-- <gui-settings-file value="gui-settings.cfg"/> -->        
   </input>
    <time>
        <step-length value="0.2"/>
    </time>
   <lanechange.duration>2.0</lanechange.duration>
</configuration>
